Circuit: * D:\ÝTÜ Ders\EHB 322E - Digital Electronic Circuits\hw2\ehb322e_hw2.asc

Model "t15dn": Oxide thickness thinner than recommended for a level 3 MOSFET.
Model "t15dp": Oxide thickness thinner than recommended for a level 3 MOSFET.
Limiting rise time of source v2 to 1e-005
Limiting fall time of source v2 to 1e-005
Instance "m25": Width narrower than recommended for a level 3 MOSFET.
Instance "m23": Width narrower than recommended for a level 3 MOSFET.
Instance "m22": Width narrower than recommended for a level 3 MOSFET.
Instance "m20": Width narrower than recommended for a level 3 MOSFET.
Instance "m7": Width narrower than recommended for a level 3 MOSFET.
Instance "m24": Width narrower than recommended for a level 3 MOSFET.
Instance "m21": Width narrower than recommended for a level 3 MOSFET.
Instance "m17": Width narrower than recommended for a level 3 MOSFET.
Instance "m15": Width narrower than recommended for a level 3 MOSFET.
Instance "m13": Width narrower than recommended for a level 3 MOSFET.
Instance "m11": Width narrower than recommended for a level 3 MOSFET.
Instance "m5": Width narrower than recommended for a level 3 MOSFET.
Instance "m18": Width narrower than recommended for a level 3 MOSFET.
Instance "m9": Width narrower than recommended for a level 3 MOSFET.
Instance "m8": Width narrower than recommended for a level 3 MOSFET.
Instance "m6": Width narrower than recommended for a level 3 MOSFET.
Instance "m4": Width narrower than recommended for a level 3 MOSFET.
Instance "m3": Width narrower than recommended for a level 3 MOSFET.
Instance "m1": Width narrower than recommended for a level 3 MOSFET.
Instance "m16": Width narrower than recommended for a level 3 MOSFET.
Instance "m14": Width narrower than recommended for a level 3 MOSFET.
Instance "m12": Width narrower than recommended for a level 3 MOSFET.
Instance "m10": Width narrower than recommended for a level 3 MOSFET.
Instance "m2": Width narrower than recommended for a level 3 MOSFET.
Direct Newton iteration for .op point succeeded.

Date: Tue May 13 22:19:02 2014
Total elapsed time: 0.133 seconds.

tnom = 27
temp = 27
method = modified trap
totiter = 2233
traniter = 2217
tranpoints = 1068
accept = 1062
rejected = 6
matrix size = 46
fillins = 10
solver = Normal
Thread vector: 18.1/10.8[2] 7.4/3.8[2] 1.9/1.3[2] 0.2/0.8[1]  2592/500
Matrix Compiler1: 5,73 KB object code size  1.5/0.7/[0.4]
Matrix Compiler2: 5,66 KB object code size  0.6/0.8/[0.6]


